#======================================================================

# CRYSTAL DATA

#----------------------------------------------------------------------

data_VESTA_phase_1


_chemical_name_common                  'fe3 si'
_cell_length_a                         5.65500
_cell_length_b                         5.65500
_cell_length_c                         5.65500
_cell_angle_alpha                      90
_cell_angle_beta                       90
_cell_angle_gamma                      90
_space_group_name_H-M_alt              'P 1'
_space_group_IT_number                 1

loop_
_space_group_symop_operation_xyz
   'x, y, z'

loop_
   _atom_site_label
   _atom_site_occupancy
   _atom_site_fract_x
   _atom_site_fract_y
   _atom_site_fract_z
   _atom_site_adp_type
   _atom_site_B_iso_or_equiv
   _atom_site_type_symbol
   Fe1        1.0     0.500000      0.500000      0.500000     Biso  1.000000 Fe
   Fe2        1.0     0.500000      0.000000      0.000000     Biso  1.000000 Fe
   Fe3        1.0     0.000000      0.500000      0.000000     Biso  1.000000 Fe
   Fe4        1.0     0.000000      0.000000      0.500000     Biso  1.000000 Fe
   Fe5        1.0     0.250000      0.250000      0.250000     Biso  1.000000 Fe
   Fe6        1.0     0.750000      0.750000      0.750000     Biso  1.000000 Fe
   Fe7        1.0     0.750000      0.750000      0.250000     Biso  1.000000 Fe
   Fe8        1.0     0.250000      0.250000      0.750000     Biso  1.000000 Fe
   Fe9        1.0     0.750000      0.250000      0.750000     Biso  1.000000 Fe
   Fe10       1.0     0.250000      0.750000      0.250000     Biso  1.000000 Fe
   Fe11       1.0     0.250000      0.750000      0.750000     Biso  1.000000 Fe
   Fe12       1.0     0.750000      0.250000      0.250000     Biso  1.000000 Fe
   Fe13       1.0     0.000000      0.000000      0.000000     Biso  1.000000 Fe
   Si1        1.0     0.000000      0.500000      0.500000     Biso  1.000000 Si
   Si2        1.0     0.500000      0.000000      0.500000     Biso  1.000000 Si
   Si3        1.0     0.500000      0.500000      0.000000     Biso  1.000000 Si
