#======================================================================

# CRYSTAL DATA

#----------------------------------------------------------------------

data_VESTA_phase_1


_chemical_name_common                  'fe'
_cell_length_a                         8.56072
_cell_length_b                         8.56072
_cell_length_c                         8.56072
_cell_angle_alpha                      90
_cell_angle_beta                       90
_cell_angle_gamma                      90
_space_group_name_H-M_alt              'P 1'
_space_group_IT_number                 1

loop_
_space_group_symop_operation_xyz
   'x, y, z'

loop_
   _atom_site_label
   _atom_site_occupancy
   _atom_site_fract_x
   _atom_site_fract_y
   _atom_site_fract_z
   _atom_site_adp_type
   _atom_site_B_iso_or_equiv
   _atom_site_type_symbol
   Fe1        1.0     0.000000      0.000000      0.000000     Biso  1.000000 Fe
   Fe2        1.0    -0.000000     -0.000000      0.333333     Biso  1.000000 Fe
   Fe3        1.0    -0.000000     -0.000000      0.666667     Biso  1.000000 Fe
   Fe4        1.0     0.333333      0.000000      0.000000     Biso  1.000000 Fe
   Fe5        1.0     0.666667      0.000000      0.000000     Biso  1.000000 Fe
   Fe6        1.0    -0.000000      0.333333      0.000000     Biso  1.000000 Fe
   Fe7        1.0    -0.000000      0.666667      0.000000     Biso  1.000000 Fe
   Fe8        1.0     0.166667      0.166667      0.500000     Biso  1.000000 Fe
   Fe9        1.0     0.166667      0.166667      0.833333     Biso  1.000000 Fe
   Fe10       1.0     0.500000      0.166667      0.166667     Biso  1.000000 Fe
   Fe11       1.0     0.833333      0.166667      0.166667     Biso  1.000000 Fe
   Fe12       1.0     0.166667      0.500000      0.166667     Biso  1.000000 Fe
   Fe13       1.0     0.166667      0.833333      0.166667     Biso  1.000000 Fe
   Fe14       1.0    -0.000000      0.333333      0.333333     Biso  1.000000 Fe
   Fe15       1.0    -0.000000      0.666667      0.666667     Biso  1.000000 Fe
   Fe16       1.0    -0.000000      0.666667      0.333333     Biso  1.000000 Fe
   Fe17       1.0    -0.000000      0.333333      0.666667     Biso  1.000000 Fe
   Fe18       1.0     0.333333     -0.000000      0.333333     Biso  1.000000 Fe
   Fe19       1.0     0.666667     -0.000000      0.666667     Biso  1.000000 Fe
   Fe20       1.0     0.333333     -0.000000      0.666667     Biso  1.000000 Fe
   Fe21       1.0     0.666667     -0.000000      0.333333     Biso  1.000000 Fe
   Fe22       1.0     0.333333      0.333333      0.000000     Biso  1.000000 Fe
   Fe23       1.0     0.666667      0.666667      0.000000     Biso  1.000000 Fe
   Fe24       1.0     0.666667      0.333333      0.000000     Biso  1.000000 Fe
   Fe25       1.0     0.333333      0.666667      0.000000     Biso  1.000000 Fe
   Fe26       1.0     0.166667      0.500000      0.500000     Biso  1.000000 Fe
   Fe27       1.0     0.166667      0.833333      0.500000     Biso  1.000000 Fe
   Fe28       1.0     0.166667      0.500000      0.833333     Biso  1.000000 Fe
   Fe29       1.0     0.500000      0.166667      0.500000     Biso  1.000000 Fe
   Fe30       1.0     0.500000      0.166667      0.833333     Biso  1.000000 Fe
   Fe31       1.0     0.833333      0.166667      0.500000     Biso  1.000000 Fe
   Fe32       1.0     0.833333      0.500000      0.166667     Biso  1.000000 Fe
   Fe33       1.0     0.500000      0.833333      0.166667     Biso  1.000000 Fe
   Fe34       1.0     0.333333      0.333333      0.333333     Biso  1.000000 Fe
   Fe35       1.0     0.666667      0.666667      0.666667     Biso  1.000000 Fe
   Fe36       1.0     0.666667      0.666667      0.333333     Biso  1.000000 Fe
   Fe37       1.0     0.333333      0.333333      0.666667     Biso  1.000000 Fe
   Fe38       1.0     0.666667      0.333333      0.666667     Biso  1.000000 Fe
   Fe39       1.0     0.333333      0.666667      0.333333     Biso  1.000000 Fe
   Fe40       1.0     0.333333      0.666667      0.666667     Biso  1.000000 Fe
   Fe41       1.0     0.666667      0.333333      0.333333     Biso  1.000000 Fe
   Fe42       1.0     0.833333      0.833333      0.833333     Biso  1.000000 Fe
   Fe43       1.0     0.833333      0.833333      0.500000     Biso  1.000000 Fe
   Fe44       1.0     0.833333      0.500000      0.833333     Biso  1.000000 Fe
   Fe45       1.0     0.500000      0.833333      0.500000     Biso  1.000000 Fe
   Fe46       1.0     0.500000      0.833333      0.833333     Biso  1.000000 Fe
   Fe47       1.0     0.833333      0.500000      0.500000     Biso  1.000000 Fe
   Si1        1.0     0.166667      0.166667      0.166667     Biso  1.000000 Si
   Si2        1.0     0.166667      0.833333      0.833333     Biso  1.000000 Si
   Si3        1.0     0.833333      0.166667      0.833333     Biso  1.000000 Si
   Si4        1.0     0.833333      0.833333      0.166667     Biso  1.000000 Si
   Si5        1.0     0.500000      0.500000      0.166667     Biso  1.000000 Si
   Si6        1.0     0.500000      0.500000      0.833333     Biso  1.000000 Si
   Si7        1.0     0.500000      0.500000      0.500000     Biso  1.000000 Si
