#======================================================================

# CRYSTAL DATA

#----------------------------------------------------------------------

data_VESTA_phase_1


_chemical_name_common                  'fe3 si'
_cell_length_a                         11.31000
_cell_length_b                         11.31000
_cell_length_c                         11.31000
_cell_angle_alpha                      90
_cell_angle_beta                       90
_cell_angle_gamma                      90
_space_group_name_H-M_alt              'P 1'
_space_group_IT_number                 1

loop_
_space_group_symop_operation_xyz
   'x, y, z'

loop_
   _atom_site_label
   _atom_site_occupancy
   _atom_site_fract_x
   _atom_site_fract_y
   _atom_site_fract_z
   _atom_site_adp_type
   _atom_site_B_iso_or_equiv
   _atom_site_type_symbol
   Fe1        1.0     0.125000      0.125000      0.125000     Biso  1.000000 Fe
   Fe2        1.0     0.625000      0.625000      0.625000     Biso  1.000000 Fe
   Fe3        1.0     0.625000      0.625000      0.125000     Biso  1.000000 Fe
   Fe4        1.0     0.125000      0.125000      0.625000     Biso  1.000000 Fe
   Fe5        1.0     0.625000      0.125000      0.625000     Biso  1.000000 Fe
   Fe6        1.0     0.125000      0.625000      0.125000     Biso  1.000000 Fe
   Fe7        1.0     0.125000      0.625000      0.625000     Biso  1.000000 Fe
   Fe8        1.0     0.625000      0.125000      0.125000     Biso  1.000000 Fe
   Fe9        1.0     0.125000      0.375000      0.375000     Biso  1.000000 Fe
   Fe10       1.0     0.625000      0.875000      0.875000     Biso  1.000000 Fe
   Fe11       1.0     0.625000      0.875000      0.375000     Biso  1.000000 Fe
   Fe12       1.0     0.125000      0.375000      0.875000     Biso  1.000000 Fe
   Fe13       1.0     0.625000      0.375000      0.875000     Biso  1.000000 Fe
   Fe14       1.0     0.125000      0.875000      0.375000     Biso  1.000000 Fe
   Fe15       1.0     0.125000      0.875000      0.875000     Biso  1.000000 Fe
   Fe16       1.0     0.625000      0.375000      0.375000     Biso  1.000000 Fe
   Fe17       1.0     0.375000      0.125000      0.375000     Biso  1.000000 Fe
   Fe18       1.0     0.875000      0.625000      0.875000     Biso  1.000000 Fe
   Fe19       1.0     0.875000      0.625000      0.375000     Biso  1.000000 Fe
   Fe20       1.0     0.375000      0.125000      0.875000     Biso  1.000000 Fe
   Fe21       1.0     0.875000      0.125000      0.875000     Biso  1.000000 Fe
   Fe22       1.0     0.375000      0.625000      0.375000     Biso  1.000000 Fe
   Fe23       1.0     0.375000      0.625000      0.875000     Biso  1.000000 Fe
   Fe24       1.0     0.875000      0.125000      0.375000     Biso  1.000000 Fe
   Fe25       1.0     0.375000      0.375000      0.125000     Biso  1.000000 Fe
   Fe26       1.0     0.875000      0.875000      0.625000     Biso  1.000000 Fe
   Fe27       1.0     0.875000      0.875000      0.125000     Biso  1.000000 Fe
   Fe28       1.0     0.375000      0.375000      0.625000     Biso  1.000000 Fe
   Fe29       1.0     0.875000      0.375000      0.625000     Biso  1.000000 Fe
   Fe30       1.0     0.375000      0.875000      0.125000     Biso  1.000000 Fe
   Fe31       1.0     0.375000      0.875000      0.625000     Biso  1.000000 Fe
   Fe32       1.0     0.875000      0.375000      0.125000     Biso  1.000000 Fe
   Fe33       1.0     0.000000      0.000000      0.000000     Biso  1.000000 Fe
   Fe34       1.0     0.750000      0.750000      0.750000     Biso  1.000000 Fe
   Fe35       1.0     0.750000      0.750000      0.000000     Biso  1.000000 Fe
   Fe36       1.0    -0.000000     -0.000000      0.750000     Biso  1.000000 Fe
   Fe37       1.0     0.750000     -0.000000      0.750000     Biso  1.000000 Fe
   Fe38       1.0    -0.000000      0.750000      0.000000     Biso  1.000000 Fe
   Fe39       1.0    -0.000000      0.750000      0.750000     Biso  1.000000 Fe
   Fe40       1.0     0.750000      0.000000      0.000000     Biso  1.000000 Fe
   Fe41       1.0     0.000000      0.250000      0.250000     Biso  1.000000 Fe
   Fe42       1.0     0.750000      0.000000      0.250000     Biso  1.000000 Fe
   Fe43       1.0     0.000000      0.250000      0.000000     Biso  1.000000 Fe
   Fe44       1.0     0.750000      0.250000      0.000000     Biso  1.000000 Fe
   Fe45       1.0     0.000000      0.000000      0.250000     Biso  1.000000 Fe
   Fe46       1.0     0.750000      0.250000      0.250000     Biso  1.000000 Fe
   Fe47       1.0     0.250000      0.000000      0.250000     Biso  1.000000 Fe
   Fe48       1.0    -0.000000      0.750000      0.250000     Biso  1.000000 Fe
   Fe49       1.0     0.250000      0.000000      0.000000     Biso  1.000000 Fe
   Fe50       1.0     0.250000      0.750000      0.250000     Biso  1.000000 Fe
   Fe51       1.0     0.250000      0.750000      0.000000     Biso  1.000000 Fe
   Fe52       1.0     0.250000      0.250000      0.000000     Biso  1.000000 Fe
   Fe53       1.0     0.250000      0.250000      0.750000     Biso  1.000000 Fe
   Fe54       1.0    -0.000000      0.250000      0.750000     Biso  1.000000 Fe
   Fe55       1.0     0.250000     -0.000000      0.750000     Biso  1.000000 Fe
   Fe56       1.0     0.000000      0.000000      0.500000     Biso  1.000000 Fe
   Fe57       1.0     0.750000      0.750000      0.250000     Biso  1.000000 Fe
   Fe58       1.0     0.750000      0.750000      0.500000     Biso  1.000000 Fe
   Fe59       1.0    -0.000000      0.750000      0.500000     Biso  1.000000 Fe
   Fe60       1.0     0.750000      0.000000      0.500000     Biso  1.000000 Fe
   Fe61       1.0     0.500000      0.000000      0.000000     Biso  1.000000 Fe
   Fe62       1.0     0.250000      0.750000      0.750000     Biso  1.000000 Fe
   Fe63       1.0     0.500000      0.750000      0.750000     Biso  1.000000 Fe
   Fe64       1.0     0.500000     -0.000000      0.750000     Biso  1.000000 Fe
   Fe65       1.0     0.500000      0.750000      0.000000     Biso  1.000000 Fe
   Fe66       1.0     0.000000      0.500000      0.000000     Biso  1.000000 Fe
   Fe67       1.0     0.750000      0.250000      0.750000     Biso  1.000000 Fe
   Fe68       1.0     0.750000      0.500000      0.750000     Biso  1.000000 Fe
   Fe69       1.0     0.750000      0.500000      0.000000     Biso  1.000000 Fe
   Fe70       1.0    -0.000000      0.500000      0.750000     Biso  1.000000 Fe
   Fe71       1.0     0.000000      0.250000      0.500000     Biso  1.000000 Fe
   Fe72       1.0     0.750000      0.250000      0.500000     Biso  1.000000 Fe
   Fe73       1.0     0.500000      0.250000      0.250000     Biso  1.000000 Fe
   Fe74       1.0     0.250000      0.250000      0.250000     Biso  1.000000 Fe
   Fe75       1.0     0.500000      0.250000      0.000000     Biso  1.000000 Fe
   Fe76       1.0     0.500000      0.000000      0.250000     Biso  1.000000 Fe
   Fe77       1.0     0.000000      0.500000      0.250000     Biso  1.000000 Fe
   Fe78       1.0     0.750000      0.500000      0.250000     Biso  1.000000 Fe
   Fe79       1.0     0.250000      0.000000      0.500000     Biso  1.000000 Fe
   Fe80       1.0     0.250000      0.750000      0.500000     Biso  1.000000 Fe
   Fe81       1.0     0.500000      0.750000      0.250000     Biso  1.000000 Fe
   Fe82       1.0     0.250000      0.500000      0.250000     Biso  1.000000 Fe
   Fe83       1.0     0.250000      0.500000      0.000000     Biso  1.000000 Fe
   Fe84       1.0     0.250000      0.250000      0.500000     Biso  1.000000 Fe
   Fe85       1.0     0.500000      0.250000      0.750000     Biso  1.000000 Fe
   Fe86       1.0     0.250000      0.500000      0.750000     Biso  1.000000 Fe
   Fe87       1.0     0.000000      0.500000      0.500000     Biso  1.000000 Fe
   Fe88       1.0     0.750000      0.500000      0.500000     Biso  1.000000 Fe
   Fe89       1.0     0.500000      0.000000      0.500000     Biso  1.000000 Fe
   Fe90       1.0     0.500000      0.750000      0.500000     Biso  1.000000 Fe
   Fe91       1.0     0.500000      0.500000      0.000000     Biso  1.000000 Fe
   Fe92       1.0     0.500000      0.500000      0.750000     Biso  1.000000 Fe
   Fe93       1.0     0.500000      0.250000      0.500000     Biso  1.000000 Fe
   Fe94       1.0     0.500000      0.500000      0.250000     Biso  1.000000 Fe
   Fe95       1.0     0.250000      0.500000      0.500000     Biso  1.000000 Fe
   Fe96       1.0     0.500000      0.500000      0.500000     Biso  1.000000 Fe
   Fe97       1.0     0.375000      0.375000      0.375000     Biso  1.000000 Fe
   Fe98       1.0     0.375000      0.625000      0.625000     Biso  1.000000 Fe
   Fe99       1.0     0.625000      0.375000      0.625000     Biso  1.000000 Fe
   Fe100      1.0     0.625000      0.625000      0.375000     Biso  1.000000 Fe
   Fe101      1.0     0.375000      0.875000      0.875000     Biso  1.000000 Fe
   Fe102      1.0     0.875000      0.375000      0.875000     Biso  1.000000 Fe
   Fe103      1.0     0.875000      0.875000      0.375000     Biso  1.000000 Fe
   Fe104      1.0     0.375000      0.125000      0.125000     Biso  1.000000 Fe
   Fe105      1.0     0.875000      0.625000      0.125000     Biso  1.000000 Fe
   Fe106      1.0     0.875000      0.125000      0.625000     Biso  1.000000 Fe
   Fe107      1.0     0.625000      0.875000      0.125000     Biso  1.000000 Fe
   Fe108      1.0     0.125000      0.375000      0.125000     Biso  1.000000 Fe
   Fe109      1.0     0.125000      0.875000      0.625000     Biso  1.000000 Fe
   Fe110      1.0     0.625000      0.125000      0.875000     Biso  1.000000 Fe
   Fe111      1.0     0.125000      0.625000      0.875000     Biso  1.000000 Fe
   Fe112      1.0     0.125000      0.125000      0.375000     Biso  1.000000 Fe
   Si1        1.0     0.375000      0.375000      0.875000     Biso  1.000000 Si
   Si2        1.0     0.875000      0.375000      0.375000     Biso  1.000000 Si
   Si3        1.0     0.375000      0.875000      0.375000     Biso  1.000000 Si
   Si4        1.0     0.375000      0.625000      0.125000     Biso  1.000000 Si
   Si5        1.0     0.875000      0.625000      0.625000     Biso  1.000000 Si
   Si6        1.0     0.375000      0.125000      0.625000     Biso  1.000000 Si
   Si7        1.0     0.625000      0.375000      0.125000     Biso  1.000000 Si
   Si8        1.0     0.125000      0.375000      0.625000     Biso  1.000000 Si
   Si9        1.0     0.625000      0.875000      0.625000     Biso  1.000000 Si
   Si10       1.0     0.625000      0.625000      0.875000     Biso  1.000000 Si
   Si11       1.0     0.125000      0.625000      0.375000     Biso  1.000000 Si
   Si12       1.0     0.625000      0.125000      0.375000     Biso  1.000000 Si
   Si13       1.0     0.875000      0.875000      0.875000     Biso  1.000000 Si
   Si14       1.0     0.875000      0.125000      0.125000     Biso  1.000000 Si
   Si15       1.0     0.125000      0.875000      0.125000     Biso  1.000000 Si
   Si16       1.0     0.125000      0.125000      0.875000     Biso  1.000000 Si
